data/pgmodel/MiniGrid_v4.json

        {
          "version": "1.0",
          "type": "input",
          "is_batch": false,
          "attributes": {},
          "data": 
        {
  "node":
    [
      {"id": 1, "u_rated": 110000, "_mrid": "http://localhost:3030/Mini3/data#_c8726716-e182-4373-b83e-8f60070078cb"},
      {"id": 2, "u_rated": 10000, "_mrid": "http://localhost:3030/Mini3/data#_764e0b8a-f2af-4092-b6aa-b4a19e55db98"},
      {"id": 3, "u_rated": 110000, "_mrid": "http://localhost:3030/Mini3/data#_37edd845-456f-4c3e-98d5-19af0c1cef1e"},
      {"id": 4, "u_rated": 110000, "_mrid": "http://localhost:3030/Mini3/data#_c0adab49-d445-4609-a1a3-ebe4ef297cc8"},
      {"id": 5, "u_rated": 30000, "_mrid": "http://localhost:3030/Mini3/data#_87c0d153-e308-4b2b-92a4-4fad53ab1ff9"},
      {"id": 6, "u_rated": 380000, "_mrid": "http://localhost:3030/Mini3/data#_adee76cd-b2b9-48ac-8fd4-0d205a435f59"},
      {"id": 7, "u_rated": 110000, "_mrid": "http://localhost:3030/Mini3/data#_b3d3b4ad-02af-4490-8748-70f6c9a23734"},
      {"id": 8, "u_rated": 30000, "_mrid": "http://localhost:3030/Mini3/data#_03163ede-7eec-457f-8641-365982227d7c"},
      {"id": 9, "u_rated": 10000, "_mrid": "http://localhost:3030/Mini3/data#_cd84fa40-ef63-422d-8ee0-d0a0f806719e"},
      {"id": 10, "u_rated": 21000, "_mrid": "http://localhost:3030/Mini3/data#_7f5515b2-ca6b-45af-93ee-f196686f0c66"},
      {"id": 11, "u_rated": 10000, "_mrid": "http://localhost:3030/Mini3/data#_c7eda3d2-e92d-4935-8166-5e045d3de045"},
      {"id": 12, "u_rated": 110000, "_mrid": "http://localhost:3030/Mini3/data#_8372a156-7579-4ea5-2222-24caf0d24603"},
      {"id": 13, "u_rated": 380000, "_mrid": "http://localhost:3030/Mini3/data#_8372a156-7579-4ea5-1111-24caf0d24603"}
    ],
  "line":
    [
      {"id": 14, "from_node": 7, "to_node": 3, "from_status": 1, "to_status": 1, "r1": 0.6, "x1": 1.95, "c1": 0, "tan1": 0, "_mrid": "http://localhost:3030/Mini3/data#_35df6abe-3087-4c27-a90a-12b5065333f3"},
      {"id": 15, "from_node": 9, "to_node": 2, "from_status": 1, "to_status": 1, "r1": 0.082, "x1": 0.086, "c1": 0, "tan1": 0, "_mrid": "http://localhost:3030/Mini3/data#_56757c2b-550e-4843-886a-ed193f6eb21e"},
      {"id": 16, "from_node": 4, "to_node": 1, "from_status": 1, "to_status": 1, "r1": 1.2, "x1": 3.9, "c1": 0, "tan1": 0, "_mrid": "http://localhost:3030/Mini3/data#_efdd7f46-67e6-46e3-9dcd-a3b6f8c613a4"},
      {"id": 17, "from_node": 3, "to_node": 1, "from_status": 1, "to_status": 1, "r1": 0.96, "x1": 3.88, "c1": 0, "tan1": 0, "_mrid": "http://localhost:3030/Mini3/data#_e95a6228-ceac-4f0a-8b52-d35367b364dc"},
      {"id": 18, "from_node": 7, "to_node": 3, "from_status": 1, "to_status": 1, "r1": 0.6, "x1": 1.95, "c1": 0, "tan1": 0, "_mrid": "http://localhost:3030/Mini3/data#_05597934-b248-491e-803a-68ce6290f502"},
      {"id": 19, "from_node": 1, "to_node": 7, "from_status": 1, "to_status": 1, "r1": 2.4, "x1": 7.8, "c1": 0, "tan1": 0, "_mrid": "http://localhost:3030/Mini3/data#_d5d1cc4a-6297-4386-b6ce-16dc26f15feb"},
      {"id": 20, "from_node": 3, "to_node": 4, "from_status": 1, "to_status": 1, "r1": 1.8, "x1": 5.79, "c1": 0, "tan1": 0, "_mrid": "http://localhost:3030/Mini3/data#_1e7f52a9-21d0-4ebe-9a8a-b29281d5bfc9"}
    ],
  "sym_gen":
    [
      {"id": 21, "node": 10, "status": 1, "type": 0, "p_specified": 5000000, "q_specified": 2000000, "_mrid": "http://localhost:3030/Mini3/data#_ca67be42-750e-4ebf-bfaa-24d446e59a22"},
      {"id": 23, "node": 2, "status": 1, "type": 0, "p_specified": 4000000, "q_specified": 3000000, "_mrid": "http://localhost:3030/Mini3/data#_392ea173-4f8e-48fa-b2a3-5c3721e93196"},
      {"id": 24, "node": 3, "status": 1, "type": 0, "p_specified": 0, "q_specified": 0, "_mrid": "http://localhost:3030/Mini3/data#_3de9e1ad-4562-44df-b268-70ed0517e9e7"},
      {"id": 25, "node": 6, "status": 1, "type": 0, "p_specified": 0, "q_specified": 0, "_mrid": "http://localhost:3030/Mini3/data#_089c1945-4101-487f-a557-66c013b748f6"}
    ],
  "sym_load":
    [
      {"id": 26, "node": 9, "status": 1, "type": 0, "p_specified": 2000000, "q_specified": 1000000, "_mrid": "http://localhost:3030/Mini3/data#_f184d87b-5565-45ee-89b4-29e8a42d3ad1"},
      {"id": 27, "node": 9, "status": 1, "type": 0, "p_specified": 2000000, "q_specified": 1000000, "_mrid": "http://localhost:3030/Mini3/data#_ba62884d-8800-41a8-9c26-698297d7ebaa"},
      {"id": 28, "node": 9, "status": 1, "type": 0, "p_specified": 5000000, "q_specified": 3000000, "_mrid": "http://localhost:3030/Mini3/data#_062ece1f-ade5-4d20-9c3a-fd8f12d12ec1"}
    ],
  "transformer":
    [
      {"id": 29, "from_node": 3, "to_node": 2, "from_status": 1, "to_status": 1, "u1": 115000, "u2": 10500, "sn": 31500000, "uk": 0.1200000001621275, "pk": 157499.9737996219, "i0": 0, "p0": 0, "winding_from": 1, "winding_to": 1, "clock": 0, "tap_side": 1, "tap_pos": 0, "tap_min": 0, "tap_max": 0, "tap_nom": 0, "tap_size": 0, "_mrid": "http://localhost:3030/Mini3/data#_6c89588b-3df5-4120-88e5-26164afb43e9"},
      {"id": 30, "from_node": 4, "to_node": 10, "from_status": 1, "to_status": 1, "u1": 115000, "u2": 21000, "sn": 150000000, "uk": 0.1599999210471823, "pk": 749999.943289225, "i0": 0, "p0": 0, "winding_from": 1, "winding_to": 1, "clock": 0, "tap_side": 1, "tap_pos": 13, "tap_min": 1, "tap_max": 25, "tap_nom": 13, "tap_size": 210, "_mrid": "http://localhost:3030/Mini3/data#_813365c3-5be7-4ef0-a0a7-abd1ae6dc174"},
      {"id": 31, "from_node": 3, "to_node": 2, "from_status": 1, "to_status": 1, "u1": 115000, "u2": 10500, "sn": 31500000, "uk": 0.1200000001621275, "pk": 157499.9737996219, "i0": 0, "p0": 0, "winding_from": 1, "winding_to": 1, "clock": 0, "tap_side": 1, "tap_pos": 0, "tap_min": 0, "tap_max": 0, "tap_nom": 0, "tap_size": 0, "_mrid": "http://localhost:3030/Mini3/data#_ceb5d06a-a7ff-4102-a620-7f3ea5fb4a51"},
      {"id": 32, "from_node": 1, "to_node": 11, "from_status": 1, "to_status": 1, "u1": 120000, "u2": 10500, "sn": 10000000, "uk": 0.1199999758270817, "pk": 500000, "i0": 0, "p0": 0, "winding_from": 1, "winding_to": 1, "clock": 0, "tap_side": 1, "tap_pos": 0, "tap_min": 0, "tap_max": 0, "tap_nom": 0, "tap_size": 0, "_mrid": "http://localhost:3030/Mini3/data#_f1e72854-ec35-46e9-b614-27db354e8dbb"}
    ],
  "three_winding_transformer":
    [
      {"id": 33, "node_1": 6, "node_2": 7, "node_3": 8, "status_1": 1, "status_2": 1, "status_3": 1, "u1": 400000, "u2": 120000, "u3": 30000, "sn_1": 350000000, "sn_2": 350000000, "sn_3": 50000000, "uk_12": 0.2113154653443845, "uk_13": 0.7000144781179479, "uk_23": 0.4912995838482651, "pk_12": 909999.9526041667, "pk_13": 3919999.600173612, "pk_23": 3919999.574652778, "i0": 0, "p0": 0, "winding_1": 1, "winding_2": 1, "winding_3": 1, "clock_12": 0, "clock_13": 0, "tap_side": 0, "tap_pos": 17, "tap_min": 1, "tap_max": 33, "tap_nom": 17, "tap_size": 4000, "_mrid": "http://localhost:3030/Mini3/data#_411b5401-0a43-404a-acb4-05c3d7d0c95c"},
      {"id": 34, "node_1": 6, "node_2": 7, "node_3": 5, "status_1": 1, "status_2": 1, "status_3": 1, "u1": 400000, "u2": 120000, "u3": 30000, "sn_1": 350000000, "sn_2": 350000000, "sn_3": 50000000, "uk_12": 0.2113154653443845, "uk_13": 0.7000144781179479, "uk_23": 0.4912995838482651, "pk_12": 909999.9526041667, "pk_13": 3919999.600173612, "pk_23": 3919999.574652778, "i0": 0, "p0": 0, "winding_1": 1, "winding_2": 1, "winding_3": 1, "clock_12": 0, "clock_13": 0, "tap_side": 0, "tap_pos": 17, "tap_min": 1, "tap_max": 33, "tap_nom": 17, "tap_size": 4000, "_mrid": "http://localhost:3030/Mini3/data#_5d38b7ed-73fd-405a-9cdb-78425e003773"}
    ],
  "source":
    [
      {"id": 22, "node": 11, "status": 1, "u_ref": 1, "sk": 1e+40, "rx_ratio": 0.1, "z01_ratio": 1, "_mrid": "http://localhost:3030/Mini3/data#_2970a2b7-b840-4e9c-b405-0cb854cd2318"}
    ]
}
}